/*--------------------------------*- C++ -*----------------------------------*\
  =========                 |
  \\      /  F ield         | OpenFOAM: The Open Source CFD Toolbox
   \\    /   O peration     | Website:  https://openfoam.org
    \\  /    A nd           | Version:  11
     \\/     M anipulation  |
\*---------------------------------------------------------------------------*/
FoamFile
{
    format      ascii;
    class       polyBoundaryMesh;
    location    "constant/polyMesh";
    object      boundary;
}
// * * * * * * * * * * * * * * * * * * * * * * * * * * * * * * * * * * * * * //

6
(
    inlet
    {
        type            patch;
        nFaces          150;
        startFace       43205;
    }
    outlet
    {
        type            patch;
        nFaces          150;
        startFace       43355;
    }
    plate
    {
        type            wall;
        inGroups        List<word> 1(wall);
        nFaces          100;
        startFace       43505;
    }
    symmTop
    {
        type            symmetryPlane;
        inGroups        List<word> 1(symmetryPlane);
        nFaces          145;
        startFace       43605;
    }
    symmBottom
    {
        type            symmetryPlane;
        inGroups        List<word> 1(symmetryPlane);
        nFaces          45;
        startFace       43750;
    }
    frontAndBack
    {
        type            empty;
        inGroups        List<word> 1(empty);
        nFaces          43500;
        startFace       43795;
    }
)

// ************************************************************************* //
